Circuit: * NGSPICE file created from sar3bits.ext - technology: sky130A

Fatal Error: No analysis request found.
